!
**DIRAC         
.TITLE          
C2+ ion
.WAVE FUNCTION  
.4INDEX
**INTEGRALS
.NUCMOD
 1
#**GENERAL
#.SPHTRA
# 0 0
**HAMILTONIAN
.NONREL
**WAVE FUNCTION          
.SCF
*SCF            
.CLOSED         
 4 0 
.ERGCNV         
1E-12           
**MOLTRA        
.PRPTRA
.SCHEME
 4
.ACTIVE         
energy -100.0 2.0 0.1
energy -100.0 2.0 0.1
*END OF INPUT   
				
