**DIRAC         
.TITLE          
O atom
.WAVE FUNCTION  
.4INDEX
**WAVE FUNCTION          
.SCF
#.RELCCSD        
*SCF            
.CLOSED         
 10          
.ERGCNV         
1E-12           
**MOLTRA        
.ACTIVE         
all
**RELCC         
.ENERGY
.FOCKSP         
.PRINT          
1               
*CCENER         
.MAXIT          
50              
.NTOL           
 9     
*CCFSPC
.MAXIT
200
.NACTH
 4 4
.DOIE
.DOIE2
#.DOIH
*CCIH
.IHSCHEME
 1
.AIH
 0.0
.NIH
 3
.SH_H2
 -5.0
*END OF INPUT   
				
