!
**DIRAC         
.TITLE          
Ne6+ ion
.WAVE FUNCTION  
.4INDEX
**HAMILTONIAN
.NONREL
**WAVE FUNCTION          
.SCF        
*SCF            
.CLOSED         
 4          
.ERGCNV         
1E-12           
**MOLTRA        
.SCHEME
 4
.ACTIVE         
all
#energy -10.0 20.0 0.1
**RELCC         
.ENERGY
.FOCKSP         
.PRINT          
1               
*CCENER         
.MAXIT          
50              
.NTOL           
 9     
*CCFSPC
.MAXIT
200
.NACTP
 4  4
.DOEA
.DOEA2
.DOIH
*CCIH
.IHSCHEME
 1
.EPMIN
 -50.0
.EPMAX
 50.0 
.NIH
 3
.AIH
 -0.5
.SH_P2
 -1.0 
*END OF INPUT   
				
