!
**DIRAC         
.TITLE          
CO molecule
.WAVE FUNCTION  
.4INDEX
**HAMILTONIAN
.NONREL
**WAVE FUNCTION          
.SCF
.RELCCSD
*SCF            
.CLOSED         
 14          
.ERGCNV         
1E-10    
**MOLTRA        
.SCHEME
 4
.ACTIVE         
all
**RELCC         
.ENERGY
.FOCKSP         
.PRINT          
1               
*CCENER         
.MAXIT          
50              
.NTOL           
 9     
*CCFSPC
.MAXIT
200
.NACTH
 4 4
.DOIE
.DOIE2
#.DOIH
*CCIH
.IHSCHEME
 1
.AIH
 0.0
.NIH
 3
.SH_H2
 -5.0
*END OF INPUT   
				
