!
**DIRAC         
.TITLE          
C atom relativistic
.WAVE FUNCTION  
.4INDEX
#**HAMILTONIAN   
#.NONREL
**WAVE FUNCTION 
.SCF            
*SCF            
.CLOSED         
 4 0        
.ERGCNV         
1E-12           
**MOLTRA        
.SCHEME
 4
.ACTIVE         
all
**RELCC         
.ENERGY         
.PRINT          
1               
*CCENER         
.MAXIT          
50              
.NTOL           
 9              
*END OF INPUT   
				
