**DIRAC         
.TITLE          
LiNa+ molecule
.WAVE FUNCTION  
.4INDEX
**WAVE FUNCTION          
.SCF
#.RELCCSD        
*SCF            
.CLOSED         
 12          
.ERGCNV         
1E-12           
**MOLTRA        
.ACTIVE         
all
**RELCC         
.ENERGY
.FOCKSP         
.PRINT          
1               
*CCENER         
.MAXIT          
50              
.NTOL           
 9     
*CCFSPC
.NACTP
 7  7
.DOEA         
*END OF INPUT   
				
